*** 0.2x0.2 square well is 0.675^2 =0.456 occupied by 6" O.D. well
ROCKS----1----*----2----*----3----*----4----*----5----*----6----*----7----*----8 
bfill    1 2500.     0.11      1.100E-17 1.100E-17 1.100E-17   5.00      1000.
 3.20E-09   3.0E-05 5.000           0.20
tvolc    1 2500.     0.12      1.100E-12 1.100E-12 1.100E-12   5.00      1000.
 3.20E-09   3.0E-05 5.000           0.20
silic    1 2500.     0.13      1.100E-12 1.100E-12 1.100E-12  5.00      1000.
 3.20E-09   3.0E-05 5.000           0.20
karst    1 2500.     0.20      1.100E-13 1.100E-13 1.100E-15   5.00      1000.
 3.20E-09   3.0E-05 5.000           0.20
carbb    1 2500.     0.20      1.100E-17 1.100E-17 1.100E-17   5.00      1000.
 3.20E-09   3.0E-05 5.000           0.20
wcase    1 2879.    0.2463     0.000E-00 0.000E-00 1.800E-08   6.43       900.
 0.00E-09  1.79E-05 15.40           1.00
wopen    1 1998.    0.3344     1.4122-15 1.4122-15 1.800E-08   7.50      1000.
 3.20E-09   3.0E-05 15.40           1.00
wadjc    1 2500.     0.06      2.9410e-7 2.9410e-7 2.9410e-7   5.00      1000.
 3.20E-09   3.0E-05 5.000           0.20

START----1----*----2----*----3----*----4----*----5----*----6----*----7----*----8

PARAM           123456789012345678901234
   49999    9999100000000120000401005000
0.00000E03     1.e10   0.5e3      1.e7du          -9.800000  2.
 1.0000e-5
0.19433134977163E+080.24678398434204E+03

TIMES
 07
1.00000e004.60000e054.32000e068.64000e071.72800e083.45600e091.00000e10

REACT----1MOPR(20)-2----*----3----*----4----*----5----*----6----*----7----*----8
200200

OUTPT !type NX NY NZ
         1   19 11 11

MULTI----1----*----2----*----3----*----4----*----5----*----6----*----7----*----8
    1    2    2    6        !for EOS1 or EOS4 nonisothermal

RMECH    mopmech(5)=1  here for mechanics;
00000

ENDCY



TIMES
 27
1.00000e-23.16000e-21.00000e-13.16000e-11.00000e003.16000e001.00000e013.16000e01
1.00000e023.16000e021.00000e033.16000e031.00000e043.16000e041.00000e053.16000e05
1.00000e063.16000e061.00000e073.16000e071.00000e083.16000e081.00000e093.16000e09
1.00000e103.16000e101.00000e11

