*** 0.2x0.2 square well is 0.675^2 =0.456 occupied by 6" O.D. well
ROCKS----1----*----2----*----3----*----4----*----5----*----6----*----7----*----8 
bfill    1 2500.    0.1        1.0000E-17   1.0000E-17   1.0000E-17     2.50      1000.
 0.00E-10   -0.0E-05 1.670          0.20
tvolc    1 2500.    0.1        1.0000E-12   1.0000E-12   1.0000E-12     2.50      1000.
 0.00E-10   -0.0E-05 1.670          0.20
silic    1 2500.    0.1        1.0000E-12   1.0000E-12   1.0000E-12     2.50      1000.
 0.00E-10   -0.0E-05 1.670          0.20
karst    1 2500.    0.2        1.0000E-13   1.0000E-13   1.0000E-15     2.50      1000.
 0.00E-10   -0.0E-05 1.670          0.20
carbs    1 2500.    0.2        1.0000E-17   1.0000E-17   1.0000E-17     2.50      1000.
 0.00E-10   -0.0E-05 1.670          0.20
wcase    1 3209.    0.876142   0.0000E-00 0.0000E-00 2.0000E-08   2.20      1000.
 0.00E-10  0.00E-05 3.00E-0         1.00
wadjc    1 2473.     0.05      2.6000E-16 2.6000E-16 2.6000E-16   2.15      1000.
 0.00E-09  -0.0E-05 1.670           0.20
wopen    1 2473.     1.00000   2.6000E-16 2.6000E-16 2.6000E-16   1.80      1000.
 0.00E-10  -0.0E-05 1.67E-0         1.00

START----1----*----2----*----3----*----4----*----5----*----6----*----7----*----8

PARAM           123456789012345678901234
   49999    9999100000000120000401005000
0.00000E03      1.e8   0.5e-01      1.e5dummy      -9.800000  2.
 1.0000e-5
0.19433134977163E+080.24678398434204E+03

TIMES
 14
1.00000e003.60000e034.32000e048.64000e041.72800e053.45600e055.18400e056.91200e05
8.64000e051.00000e063.15569e061.00000e073.15569e071.00000e08

REACT----1MOPR(20)-2----*----3----*----4----*----5----*----6----*----7----*----8
200200

OUTPT !type NX NY NZ
         1   9 5 5

MULTI----1----*----2----*----3----*----4----*----5----*----6----*----7----*----8
    1    2    2    6        !for EOS1 or EOS4 nonisothermal

RMECH    mopmech(5)=1  here for mechanics;
00000

OUTPT !type NX NY NZ
         1   9 9 5

COFT
F__99F_110
F__66F__77
F__55F__66

ENDCY

TIMES
 27
1.00000e-23.16000e-21.00000e-13.16000e-11.00000e003.16000e001.00000e013.16000e01
1.00000e023.16000e021.00000e033.16000e031.00000e043.16000e041.00000e053.16000e05
1.00000e063.16000e061.00000e073.16000e071.00000e083.16000e081.00000e093.16000e09
1.00000e103.16000e101.00000e11
